Info: SIMULATION PARAMETERS:
Info: TIMESTEP               2
Info: NUMBER OF STEPS        0
Info: STEPS PER CYCLE        10
Info: PERIODIC CELL BASIS 1  64 0 0
Info: PERIODIC CELL BASIS 2  0 64 0
Info: PERIODIC CELL BASIS 3  0 0 64
Info: PERIODIC CELL CENTER   0 0 0
Info: WRAPPING WATERS AROUND PERIODIC BOUNDARIES ON OUTPUT.
Info: WRAPPING ALL CLUSTERS AROUND PERIODIC BOUNDARIES ON OUTPUT.
Info: FIRST LDB TIMESTEP     50
Info: LAST LDB TIMESTEP     -1
Info: HOM BACKGROUND SCALING 1
Info: PME BACKGROUND SCALING 1
Info: MAX SELF PARTITIONS    20
Info: MAX PAIR PARTITIONS    8
Info: SELF PARTITION ATOMS   154
Info: SELF2 PARTITION ATOMS   154
Info: PAIR PARTITION ATOMS   318
Info: PAIR2 PARTITION ATOMS  637
Info: MIN ATOMS PER PATCH    100
Info: INITIAL TEMPERATURE    310
Info: CENTER OF MASS MOVING INITIALLY? NO
Info: DIELECTRIC             1
Info: EXCLUDE                SCALED ONE-FOUR
Info: 1-4 ELECTROSTATICS SCALED BY 1
Info: MODIFIED 1-4 VDW PARAMETERS WILL BE USED
Info: DCD FILENAME           generic_optimization.dcd
Info: DCD FREQUENCY          5000
Info: DCD FIRST STEP         5000
Info: DCD FILE WILL CONTAIN UNIT CELL DATA
Info: XST FILENAME           generic_optimization.xst
Info: XST FREQUENCY          5000
Info: NO VELOCITY DCD OUTPUT
Info: OUTPUT FILENAME        generic_optimization
Info: BINARY OUTPUT FILES WILL BE USED
Info: RESTART FILENAME       generic_optimization.restart
Info: RESTART FREQUENCY      5000
Info: BINARY RESTART FILES WILL BE USED
Info: SWITCHING ACTIVE
Info: SWITCHING ON           10
Info: SWITCHING OFF          12
Info: PAIRLIST DISTANCE      14
Info: PAIRLIST SHRINK RATE   0.01
Info: PAIRLIST GROW RATE     0.01
Info: PAIRLIST TRIGGER       0.3
Info: PAIRLISTS PER CYCLE    2
Info: PAIRLISTS ENABLED
Info: MARGIN                 0.99
Info: HYDROGEN GROUP CUTOFF  2.5
Info: PATCH DIMENSION        17.49
Info: ENERGY OUTPUT STEPS    5000
Info: CROSSTERM ENERGY INCLUDED IN DIHEDRAL
Info: TIMING OUTPUT STEPS    5000
Info: PRESSURE OUTPUT STEPS  5000
Info: HARMONIC CONSTRAINTS ACTIVE
Info: HARMONIC CONS EXP      2
Info: HARMONIC CONS SCALING  0.1
Info: LANGEVIN DYNAMICS ACTIVE
Info: LANGEVIN TEMPERATURE   310
Info: LANGEVIN DAMPING COEFFICIENT IS 5 INVERSE PS
Info: LANGEVIN DYNAMICS NOT APPLIED TO HYDROGENS
Info: LANGEVIN PISTON PRESSURE CONTROL ACTIVE
Info:        TARGET PRESSURE IS 1.01325 BAR
Info:     OSCILLATION PERIOD IS 100 FS
Info:             DECAY TIME IS 50 FS
Info:     PISTON TEMPERATURE IS 310 K
Info:       PRESSURE CONTROL IS GROUP-BASED
Info:    INITIAL STRAIN RATE IS 0 0 0
Info:       CELL FLUCTUATION IS ANISOTROPIC
Info: PARTICLE MESH EWALD (PME) ACTIVE
Info: PME TOLERANCE               1e-06
Info: PME EWALD COEFFICIENT       0.257952
Info: PME INTERPOLATION ORDER     4
Info: PME GRID DIMENSIONS         64 64 64
Info: PME MAXIMUM GRID SPACING    1.5
Info: FULL ELECTROSTATIC EVALUATION FREQUENCY      2
Info: USING VERLET I (r-RESPA) MTS SCHEME.
Info: C1 SPLITTING OF LONG RANGE ELECTROSTATICS
Info: PLACING ATOMS IN PATCHES BY HYDROGEN GROUPS
Info: RIGID BONDS TO HYDROGEN : ALL
Info:         ERROR TOLERANCE : 1e-08
Info:          MAX ITERATIONS : 100
Info: RIGID WATER USING SETTLE ALGORITHM
Info: RANDOM NUMBER SEED     1291861846
Info: USE HYDROGEN BONDS?    NO
Info: COORDINATE PDB         InputFiles/A2_aspirin4_ion.pdb
Info: STRUCTURE FILE         InputFiles/A2_aspirin4_ion.psf
Info: PARAMETER file: CHARMM format!
Info: PARAMETERS             InputFiles/par_all27_prot_na.inp
Info: PARAMETERS             InputFiles/aspirin_ion.par
Info: USING ARITHMETIC MEAN TO COMBINE L-J SIGMA PARAMETERS
Info: SUMMARY OF PARAMETERS:
Info: 259 BONDS
Info: 634 ANGLES
Info: 1070 DIHEDRAL
Info: 79 IMPROPER
Info: 0 CROSSTERM
Info: 138 VDW
Info: 0 VDW_PAIRS
Info: STRUCTURE SUMMARY:
Info: 24149 ATOMS
Info: 16714 BONDS
Info: 10696 ANGLES
Info: 4762 DIHEDRALS
Info: 366 IMPROPERS
Info: 0 CROSSTERMS
Info: 0 EXCLUSIONS
Info: 4 CONSTRAINTS
Info: 23161 RIGID BONDS
Info: 49286 DEGREES OF FREEDOM
Info: 8427 HYDROGEN GROUPS
Info: 4 ATOMS IN LARGEST HYDROGEN GROUP
Info: 8427 MIGRATION GROUPS
Info: 4 ATOMS IN LARGEST MIGRATION GROUP
Info: TOTAL MASS = 148527 amu
Info: TOTAL CHARGE = 1.37277e-06 e
Info: MASS DENSITY = 0.940861 g/cm^3
Info: ATOM DENSITY = 0.0921211 atoms/A^3
Info: REMOVING COM VELOCITY 0.0786541 0.0284103 -0.00194084
Info: NONBONDED TABLE R-SQUARED SPACING: 0.0625
Info: NONBONDED TABLE SIZE: 769 POINTS
TCL: Minimizing for 1000 steps
ETITLE: TS BOND ANGLE DIHED IMPRP ELECT VDW BOUNDARY MISC KINETIC TOTAL TEMP POTENTIAL TOTAL3 TEMPAVG PRESSURE GPRESSURE VOLUME PRESSAVG GPRESSAVG
ENERGY: 0 7294.2466 2562.0213 486.5491 4.0009 -80592.2087 5193046.3875 0.0000 0.0000 0.0000 5122800.9967 0.0000 5122800.9967 5122800.9967 0.0000 5498873.6330 5504132.1360 262144.0000 5498873.6330 5504132.1360
ENERGY: 200 2982.4804 2487.1595 507.9170 14.3362 -100718.6277 6441.4467 0.0019 0.0000 0.0000 -88285.2861 0.0000 -88285.2861 -88285.2861 0.0000 -8202.4180 -8060.4973 262144.0000 -8202.4180 -8060.4973
ENERGY: 400 3274.7589 2472.8328 509.3117 12.5833 -111033.6382 10476.0419 0.0098 0.0000 0.0000 -94288.0998 0.0000 -94288.0998 -94288.0998 0.0000 -5868.5662 -5849.1158 262144.0000 -5868.5662 -5849.1158
ENERGY: 600 3262.8566 2468.8591 507.2906 12.1991 -114044.6483 10948.3278 0.0118 0.0000 0.0000 -96845.1034 0.0000 -96845.1034 -96845.1034 0.0000 -6060.9137 -6155.9450 262144.0000 -6060.9137 -6155.9450
ENERGY: 800 3378.2665 2514.8291 505.9319 11.6420 -116426.9410 11803.3324 0.0166 0.0000 0.0000 -98212.9226 0.0000 -98212.9226 -98212.9226 0.0000 -5715.0331 -5753.0573 262144.0000 -5715.0331 -5753.0573
ENERGY: 1000 3452.2429 2536.3119 504.9916 11.4200 -117871.3220 12325.2355 0.0196 0.0000 0.0000 -99041.1004 0.0000 -99041.1004 -99041.1004 0.0000 -5513.5146 -5493.0938 262144.0000 -5513.5146 -5493.0938
TCL: Running for 25000 steps
ETITLE: TS BOND ANGLE DIHED IMPRP ELECT VDW BOUNDARY MISC KINETIC TOTAL TEMP POTENTIAL TOTAL3 TEMPAVG PRESSURE GPRESSURE VOLUME PRESSAVG GPRESSAVG
ENERGY: 5000 401.6346 1030.5937 650.6997 68.9770 -87363.7253 7159.2963 0.1276 0.0000 15126.0297 -62926.3667 308.8814 -78052.3963 -62883.4413 281.4238 -236.6612 -205.1415 239891.0340 2.1362 2.2765
ENERGY: 10000 391.2333 1059.2847 639.0885 61.4892 -87285.7591 7076.8538 0.3808 0.0000 15206.7508 -62850.6779 310.5298 -78057.4287 -62804.0113 308.7264 -141.1319 -112.7773 241017.2379 0.9210 0.9645
ENERGY: 15000 377.2306 1037.4293 627.0668 67.2302 -87574.3860 7170.0246 0.5942 0.0000 15058.4930 -63236.3174 307.5023 -78294.8103 -63189.9584 310.0439 81.2023 110.2542 238070.4994 -0.1445 -0.0803
ENERGY: 20000 405.9107 1054.9146 646.2868 73.0972 -87649.7187 7150.0512 0.3900 0.0000 14925.3205 -63393.7477 304.7828 -78319.0682 -63349.6010 309.0831 -143.2695 -120.2747 238801.9249 1.7112 1.5788
ENERGY: 25000 415.7241 1002.5225 623.3263 58.5575 -87956.0342 7201.7042 0.4176 0.0000 15168.6264 -63485.1556 309.7512 -78653.7820 -63431.3484 308.6400 -72.1899 -48.7695 238499.1543 -0.1198 -0.3173
